621	19080000EAF00	BULDOZER SYSTEM	19080000EAF	OPERATING	0	UJTA
3889	19080000QJH20AK003	#2 FRAME 3	19080000QJH20	OPERATING	0	UJTA
5106	19080010BA	UNIT 1 - POWER TRANSMISSION	19080010B	OPERATING	1	UJTA
1416	19080000GCB32AA601	COMMON - REDUCER ON SEAWATER INLET PIPE 2	19080000GCB32	OPERATING	0	UJTA
5107	19080010BAA	UNIT 1 - GENERATOR LEADS	19080010BA	OPERATING	1	UJTA
2004	19080000GF	COMMON - CATION BED SYSTEM	19080000G	OPERATING	0	UJTA
2116	19080000GNN	COMMON - CHEMICAL SUPPLY SYSTEM	19080000GN	OPERATING	0	UJTA
2230	19080000GNN42AP001	COMMON - FLOCCULATION DOSING PUMP	19080000GNN42	OPERATING	0	UJTA
2362	19080000GNR50BB002	COMMON - OIL DRAIN TANK	19080000GNR50	OPERATING	0	UJTA
2449	19080000GSM01AE003	COMMON - ELECTRIC BLOCK C	19080000GSM01	OPERATING	0	UJTA
2514	19080000LD	COMMON -  CONDENSATE POLISHING PLANT	19080000L	OPERATING	0	UJTA
2634	19080000LDN20	COMMON- ACID STORAGE TANK SYSTEM	19080000LDN	OPERATING	0	UJTA
3741	19080000QJH10AK001	#1 FRAME 1	19080000QJH10	OPERATING	0	UJTA
3862	19080000QJH20AA221	BALL VALVE DRAIN ALKALI TANK	19080000QJH20	OPERATING	0	UJTA
5437	19080010CWA03GK002	UNIT 1 - DCS OWS	19080010CWA03	OPERATING	1	UJTA
4162	19080000SCB	COMMON - COMPRESSED AIR SYSTEM	19080000SC	OPERATING	0	UJTA
4899	19080000UEF30	STRUCTRURE - T3 TRANSFER TOWER	19080000UEF	OPERATING	0	UJTA
5706	19080010HAH04	UNIT 1 - HP SUPERHEATER SH PANELS OUTLET	19080010HAH	OPERATING	1	UJTA
5761	19080010HAH06	UNIT 1 HP SUPERHEATER 2ND SPRAY	19080010HAH	OPERATING	1	UJTA
5833	19080010HAJ	UNIT 1 - REHEAT SYSTEM	19080010HA	OPERATING	1	UJTA
7170	19080010HHE33	UNIT 1  COAL MILL (C) TO BUNER (C3)	19080010HHE	OPERATING	1	UJTA
7324	19080010HHP	UNIT 1 -   COOLANT SUPPLY SYSTEM (STEAM)	19080010HH	OPERATING	1	UJTA
7482	19080010HLA51	UNIT 1 - DUCTING EQUIPMENT (14)	19080010HLA	OPERATING	1	UJTA
7744	19080010HNA	UNIT 1 - DUCTING SYSTEM	19080010HN	OPERATING	1	UJTA
7852	19080010HNY	UNIT 1 - CONTROL AND PROTECTION EQUIPMENT	19080010HN	OPERATING	1	UJTA
8388	19080010LAL	UNIT 1 - BFP LUBE OIL COOLER SYSTEM	19080010LA	OPERATING	1	UJTA
9300	19080010LCJ40BR002	UNIT 1 - PIPE 2 DEAERATOR DRAIN	19080010LCJ40	OPERATING	1	UJTA
9590	19080010LNW	UNIT 1 -SEALING FLUID SUPPLY SYSTEM	19080010LN	OPERATING	1	UJTA
9852	19080010MAJ12AP001	UNIT 1 - VACUUM PUMP (B)	19080010MAJ12	OPERATING	1	UJTA
10089	19080010MAV46	UNIT 1 - LUBRICANT SUPPLY EQUIPMENT (46)	19080010MAV	OPERATING	1	UJTA
10134	19080010MAV62	UNIT 1 -  LUBRICANT SUPPLY EQUIPMENT (62)	19080010MAV	OPERATING	1	UJTA
10823	19080010MKW65AP001	UNIT 1  - H2 SIDE SEAL OIL PUMP B	19080010MKW65	ACTIVE	1	UJTA
11957	19080020CRB	UNIT 2 - CABINETS FOR FUNCTIONAL GROUP CONTROL	19080020CR	OPERATING	2	UJTA
12161	19080020HAD	UNIT 2 - EVAPORATOR SYSTEM	19080020HA	OPERATING	2	UJTA
12395	19080020HAJ10	UNIT 2 - REHEAT OUTLET STEAM	19080020HAJ	OPERATING	2	UJTA
12779	19080020HFC10AJ001	UNIT 2 - COAL MILL A	19080020HFC10	OPERATING	2	UJTA
13307	19080020HFW	UNIT 2 - SEALING FLUID SUPPLY SYSTEM	19080020HF	OPERATING	2	UJTA
13669	19080020HHE22	UNIT 2  COAL MILL (B) TO BUNER (B2)	19080020HHE	OPERATING	2	UJTA
14328	19080020HNC20	UNIT 2 - INDUCED DRAUGHT FAN SYSTEM (B)	19080020HNC	OPERATING	2	UJTA
14407	19080020HU	UNIT 2 - FLUE GAS REHEATING SYSTEM	19080020H	OPERATING	2	UJTA
14602	19080020LAC	UNIT 2  - FEEDWATER PUMP SYSTEM	19080020LA	OPERATING	2	UJTA
15050	19080020LBG20CP101	UNIT 2  - REHEAT INLET TO AUX STEAM PRESS	19080020LBG20	OPERATING	2	UJTA
15569	19080020LCC20AC001	UNIT 2  - LPH 6	19080020LCC20	OPERATING	2	UJTA
15582	19080020LCC30CT501	UNIT 2  - THERMOCOUPLE LPH 7	19080020LCC30	OPERATING	2	UJTA
15693	19080020LCH	UNIT 2  - HP HEATER DRAINS SYSTEM	19080020LC	OPERATING	2	UJTA
15997	19080020LCS	UNIT 2  - REHEATER DRAINS SYSTEM	19080020LC	OPERATING	2	UJTA
16139	19080020M	UNIT 2  - MAIN MACHINE SETS	19080020	OPERATING	2	UJTA
17345	19080020P	ERROR 23	19080020	OPERATING	2	UJTA
68	19080000AHA02	COMMON - #2 SWITCHBOARD OF  20KV  SWITCHGEAR	19080000AHA	OPERATING	0	UJTA
1	1908	PT PLN (PERSERO) UPJB SPP TANJUNG AWAR-AWAR	-1	OPERATING		UJTA
2	190800	PLTU TANJUNG AWAR-AWAR	1908	OPERATING		UJTA
3	19080000	PLTU TANJUNG AWAR-AWAR COMMON SYSTEM	190800	OPERATING	0	UJTA
4	19080010	PLTU TANJUNG AWAR-AWAR UNIT 1	190800	OPERATING	1	UJTA
5	19080020	PLTU TANJUNG AWAR-AWAR UNIT 2	190800	OPERATING	2	UJTA
6	19080000A	COMMON - GRID AND DISTRIBUTION SYSTEMS	19080000	OPERATING	0	UJTA
7	19080000AB	COMMON - GRID AND DISTRIBUTION SYSTEMS - 150KV SYSTEMS	19080000A	OPERATING	0	UJTA
8	19080000ABA	COMMON - GRID AND DISTRIBUTION SYSTEMS - 150KV EQUIPMENT	19080000AB	OPERATING	0	UJTA
9	19080000ABA00	COMMON - BUS BAR EQUIPMENT OF 150KV DISTRIBUTION DEVICE	19080000ABA	OPERATING	0	UJTA
10	19080000ABA00GS011	COMMON -BUS I EARTHING SWITCH AT  FIXED END SIDE	19080000ABA00	OPERATING	0	UJTA
11	19080000ABA00GS012	COMMON -BUS I EARTHING SWITCH AT  EXTENSION END SIDE	19080000ABA00	OPERATING	0	UJTA
12	19080000ABA00GS021	COMMON -BUS II EARTHING SWITCH AT  FIXED END SIDE	19080000ABA00	OPERATING	0	UJTA
13	19080000ABA00GS022	COMMON -BUS II EARTHING SWITCH AT  EXTENSION END SIDE	19080000ABA00	OPERATING	0	UJTA
14	19080000ABA00GT001	COMMON -BUS  I  PT	19080000ABA00	OPERATING	0	UJTA
15	19080000ABA00GT002	COMMON -BUS  II  PT	19080000ABA00	OPERATING	0	UJTA
16	19080000ABA00GV001	COMMON -BUS  I  ARRESTER	19080000ABA00	OPERATING	0	UJTA
17	19080000ABA00GV002	COMMON -BUS  II  ARRESTER	19080000ABA00	OPERATING	0	UJTA
18	19080000ABA01	COMMON -T.F.T STRING OF 150KV DISTRIBUTION DEVICE	19080000ABA	OPERATING	0	UJTA
19	19080000ABA01GS000	COMMON -BUS I SIDE, INTERCONNECTING, BUS II SIDE CB OF T.F.T STRING	19080000ABA01	OPERATING	0	UJTA
20	19080000ABA01GS001	COMMON -BUS I, INTERMEDIATE,BUS II, OUTGOING LINE, INCOMING LINE SIDE DISCONNECTOR GS001  OF  T.F.T STRING	19080000ABA01	OPERATING	0	UJTA
21	19080000ABA01GS002	COMMON -BUS I, INTERMEDIATE, BUS II SIDE DISCONNECTOR GS002  OF  T.F.T STRING	19080000ABA01	OPERATING	0	UJTA
22	19080000ABA01GS011	COMMON -BUS I, INTERMEDIATE, BUS II, OUTGOING LINE, INCOMING LINE SIDE EARTHING SWITCH GS011  OF  T.F.T STRING	19080000ABA01	OPERATING	0	UJTA
23	19080000ABA01GS012	COMMON -BUS I, INTERMEDIATE, BUS II, OUTGOING LINE, INCOMING LINE SIDE EARTHING SWITCH GS012  OF  T.F.T STRING	19080000ABA01	OPERATING	0	UJTA
24	19080000ABA01GT001	COMMON -BUS I, INTERMEDIATE, BUS II SIDE PHASE A,B,C  CT  OF  T.F.T STRING & T.F.T INCOMING LINE  PHASE A,B,C  PT OF  T.F.T STRING	19080000ABA01	OPERATING	0	UJTA
25	19080000ABA01GT002	COMMON -OUTGOING LINE PHASE A,B,C  PT OF  T.F.T STRING	19080000ABA01	OPERATING	0	UJTA
26	19080000ABA01GV001	COMMON -T.F.T INCOMING LINE PHASE A,B,C  ARRESTER OF  T.F.T STRING	19080000ABA01	OPERATING	0	UJTA
27	19080000ABA01GV002	COMMON -OUTGOING LINE PHASE A,B,C  ARRESTER OF  T.F.T STRING	19080000ABA01	OPERATING	0	UJTA
28	19080000ABA01GW001	COMMON -OUTGOING LINE PHASE A,B,C  WAVE DAMPER OF  T.F.T STRING	19080000ABA01	OPERATING	0	UJTA
29	19080000ABA02	COMMON - MAIN TRANSFORMER  NO.1 STRING OF 150KV DISTRIBUTION DEVICE	19080000ABA	OPERATING	0	UJTA
30	19080000ABA02GS000	COMMON - BUS I, INTERCONNECTING, BUS II SIDE CB OF MAIN TRANSFORMER NO.1 STRING	19080000ABA02	OPERATING	0	UJTA
31	19080000ABA02GS001	COMMON - BUS I, INTERMEDIATE, BUS II, OUTGOING LINE SIDE DISCONNECTOR GS001 OF MAIN TRANSFORMER NO.1 STRING	19080000ABA02	OPERATING	0	UJTA
32	19080000ABA02GS002	COMMON - BUS I, INTERMEDIATE, BUS II SIDE DISCONNECTOR GS002 OF MAIN TRANSFORMER NO.1 STRING	19080000ABA02	OPERATING	0	UJTA
33	19080000ABA02GS011	COMMON - BUS I, INTERMEDIATE, BUS II, OUTGOING LINE SIDE EARTHING SWITCH GS011 OF MAIN TRANSFORMER NO.1 STRING	19080000ABA02	OPERATING	0	UJTA
34	19080000ABA02GS012	COMMON - BUS I, INTERMEDIATE, BUS II, OUTGOING LINE SIDE EARTHING SWITCH GS012 OF MAIN TRANSFORMER NO.1 STRING	19080000ABA02	OPERATING	0	UJTA
35	19080000ABA02GT001	COMMON - BUS I, INTERMEDIATE, BUS II, TRANSFORMER INCOMING LINE SIDE PHASE A,B,C CT OF MAIN TRANSFORMER NO.1 STRING	19080000ABA02	OPERATING	0	UJTA
36	19080000ABA02GT002	COMMON - OUTGOING LINE PHASE A,B,C PT OF MAIN TRANSFORMER NO.1 STRING	19080000ABA02	OPERATING	0	UJTA
37	19080000ABA02GV001	COMMON - TRANSFORMER INCOMING LINE PHASE A,B,C ARRESTER OF MAIN TRANSFORMER NO.1 STRING	19080000ABA02	OPERATING	0	UJTA
38	19080000ABA02GV002	COMMON - OUTGOING LINE PHASE A,B,C ARRESTER OF MAIN TRANSFORMER NO.1 STRING	19080000ABA02	OPERATING	0	UJTA
39	19080000ABA02GW001	COMMON - OUTGOING LINE PHASE A,B,C WAVE DAMPER OF MAIN TRANSFORMER NO.1 STRING	19080000ABA02	OPERATING	0	UJTA
40	19080000ABA03	COMMON - S/ST STRING OF 150KV DISTRIBUTION DEVICE	19080000ABA	OPERATING	0	UJTA
41	19080000ABA03GS000	COMMON - BUS I, INTERCONNECTING, BUS II SIDE CB OF S/ST STRING	19080000ABA03	OPERATING	0	UJTA
42	19080000ABA03GS001	COMMON - BUS I, INTERMEDIATE, BUS II, OUTGOING LINE SIDE DISCONNECTOR GS001  OF  S/ST STRING	19080000ABA03	OPERATING	0	UJTA
43	19080000ABA03GS002	COMMON - BUS I, INTERMEDIATE, BUS II SIDE DISCONNECTOR GS002  OF  S/ST STRING	19080000ABA03	OPERATING	0	UJTA
44	19080000ABA03GS011	COMMON - BUS I, INTERMEDIATE, BUS II, OUTGOING LINE SIDE EARTHING SWITCH GS011  OF  S/ST STRING	19080000ABA03	OPERATING	0	UJTA
45	19080000ABA03GS012	COMMON - BUS I, INTERMEDIATE, BUS II, OUTGOING LINE SIDE EARTHING SWITCH GS012  OF  S/ST STRING	19080000ABA03	OPERATING	0	UJTA
46	19080000ABA03GT001	COMMON - BUS I, INTERMEDIATE, BUS II, TRANSFORMER INCOMING LIN SIDE PHASE A,B,C CT  OF  S/ST STRING	19080000ABA03	OPERATING	0	UJTA
47	19080000ABA03GT002	COMMON - OUTGOING LINE PHASE A,B,C PT  OF  S/ST STRING	19080000ABA03	OPERATING	0	UJTA
48	19080000ABA03GV001	COMMON - TRANSFORMER INCOMING LINE PHASE A,B,C ARRESTER OF  S/ST STRING	19080000ABA03	OPERATING	0	UJTA
49	19080000ABA03GV002	COMMON - OUTGOING LINE PHASE A,B,C ARRESTER OF  S/ST STRING	19080000ABA03	OPERATING	0	UJTA
50	19080000ABA03GW001	COMMON - OUTGOING LINE PHASE A,B,C WAVE DAMPER  OF  S/ST STRING	19080000ABA03	OPERATING	0	UJTA
51	19080000ABA04	COMMON - MAIN TRANSFORMER  NO.2 STRING OF 150KV DISTRIBUTION DEVICE	19080000ABA	OPERATING	0	UJTA
52	19080000ABA04GS000	COMMON - BUS I, INTERCONNECTING, BUS II SIDE CB OF MAIN TRANSFORMER NO.2 STRING	19080000ABA04	OPERATING	0	UJTA
53	19080000ABA04GS001	COMMON - BUS I, INTERMEDIATE, BUS II, OUTGOING LINE SIDE DISCONNECTOR GS001 OF MAIN TRANSFORMER NO.2 STRING	19080000ABA04	OPERATING	0	UJTA
54	19080000ABA04GS002	COMMON - BUS I, INTERMEDIATE, BUS II SIDE DISCONNECTOR GS002 OF MAIN TRANSFORMER NO.2 STRING	19080000ABA04	OPERATING	0	UJTA
55	19080000ABA04GS011	COMMON - BUS I, INTERMEDIATE, BUS II, OUTGOING LINE SIDE EARTHING SWITCH GS011 OF MAIN TRANSFORMER NO.2 STRING	19080000ABA04	OPERATING	0	UJTA
56	19080000ABA04GS012	COMMON - BUS I, INTERMEDIATE, BUS II, OUTGOING LINE SIDE EARTHING SWITCH GS012 OF MAIN TRANSFORMER NO.2 STRING	19080000ABA04	OPERATING	0	UJTA
57	19080000ABA04GT001	COMMON - BUS I, INTERMEDIATE, BUS II, TRANSFORMER INCOMING LINE SIDE PHASE A,B,C CT OF MAIN TRANSFORMER NO.2 STRING	19080000ABA04	OPERATING	0	UJTA
58	19080000ABA04GT002	COMMON - OUTGOING LINE PHASE A,B,C PT OF MAIN TRANSFORMER NO.2 STRING	19080000ABA04	OPERATING	0	UJTA
59	19080000ABA04GV001	COMMON - TRANSFORMER INCOMING LINE PHASE A,B,C ARRESTER OF MAIN TRANSFORMER NO.2 STRING	19080000ABA04	OPERATING	0	UJTA
60	19080000ABA04GV002	COMMON - OUTGOING LINE PHASE A,B,C ARRESTER OF MAIN TRANSFORMER NO.2 STRING	19080000ABA04	OPERATING	0	UJTA
61	19080000ABA04GW001	COMMON - OUTGOING LINE PHASE A,B,C WAVE DAMPER OF MAIN TRANSFORMER NO.2 STRING	19080000ABA04	OPERATING	0	UJTA
62	19080000AH	COMMON - GRID AND DISTRIBUTION SYSTEMS - 30 (35 KV) SYSTEMS	19080000A	OPERATING	0	UJTA
63	19080000AHA	COMMON - GRID AND DISTRIBUTION SYSTEMS - 30 (35 KV) SYSTEMS - 20KV  SWITCHGEAR	19080000AH	OPERATING	0	UJTA
64	19080000AHA01	COMMON - #1 SWITCHBOARD OF  20KV  SWITCHGEAR	19080000AHA	OPERATING	0	UJTA
65	19080000AHA01SD001	SWITCHGEAR 20 KV SYSTEM - AUTOMATIC FIRE DETECTION SYSTEM NO. 1 (A)	19080000AHA01	OPERATING	0	UJTA
66	19080000AHA01SD001CU21	SWITCHGEAR 20 KV SYSTEM -  PHOTOELECTRIC LIGHT-SCATERING SMOKE DETECTOR - CABLING	19080000AHA01SD001	OPERATING	0	UJTA
67	19080000AHA01SD001CU22	SWITCHGEAR 20 KV SYSTEM -  PHOTOELECTRIC LIGHT-SCATERING SMOKE DETECTOR - SENSOR	19080000AHA01SD001	OPERATING	0	UJTA
69	19080000AHT	COMMON - TOWN  FEEDER  TRANSFORMER SYSTEM	19080000AH	OPERATING	0	UJTA
70	19080000AHT01	COMMON - TOWN  FEEDER  TRANSFORMER EQUIPMENT	19080000AHT	OPERATING	0	UJTA
71	19080000AHT01GT001	COMMON -  HV SIDE PHASE A,B,C  BUSHING CT OF TOWN FEEDER TRANSFORMER	19080000AHT01	OPERATING	0	UJTA
72	19080000AHT01GT002	COMMON -  NEUTRAL POINT BUSHING CT OF TOWN FEEDER TRANSFORMER	19080000AHT01	OPERATING	0	UJTA
73	19080000AHT01SD001	TOWN FEEDER TRANSFORMER SYSTEM - AUTOMATIC FIRE DETECTION SYSTEM NO. 1 (A)	19080000AHT01	OPERATING	0	UJTA
74	19080000AHT01SD001CT41	TOWN FEEDER TRANSFORMER SYSTEM - AUTOMATIC FIRE DETECTION SYSTEM NO. 1 - LINEAR HEAT DETECTOR - CABLING (A)	19080000AHT01SD001	OPERATING	0	UJTA
75	19080000AHT01SD001CT42	TOWN FEEDER TRANSFORMER SYSTEM - AUTOMATIC FIRE DETECTION SYSTEM NO. 1 - LINEAR HEAT DETECTOR - SENSOR (A)	19080000AHT01SD001	OPERATING	0	UJTA
76	19080000AHT01SG001	TOWN FEEDER TRANSFORMER SYSTEM - AUTOMATIC FIRE PROTECTION SYSTEM NO. 1 (A)	19080000AHT01	OPERATING	0	UJTA
77	19080000AHT01SG001GC01	TOWN FEEDER TRANSFORMER SYSTEM - AUTOMATIC FIRE PROTECTION SYSTEM NO. 1 - DRY WATER SYSTEM - MANUAL VALVE (A)	19080000AHT01SG001	OPERATING	0	UJTA
78	19080000AHT01SG001GC02	TOWN FEEDER TRANSFORMER SYSTEM - AUTOMATIC FIRE PROTECTION SYSTEM NO. 1 - DRY WATER SYSTEM - DELUGE VALVE (A)	19080000AHT01SG001	OPERATING	0	UJTA
79	19080000AHT01SG001GC03	TOWN FEEDER TRANSFORMER SYSTEM - AUTOMATIC FIRE PROTECTION SYSTEM NO. 1 - DRY WATER SYSTEM - WATER GONG (A)	19080000AHT01SG001	OPERATING	0	UJTA
80	19080000AHT01SG001GC04	TOWN FEEDER TRANSFORMER SYSTEM - AUTOMATIC FIRE PROTECTION SYSTEM NO. 1 - DRY WATER SYSTEM - HORN STROBE (A)	19080000AHT01SG001	OPERATING	0	UJTA
81	19080000AHT01SG001GC05	TOWN FEEDER TRANSFORMER SYSTEM - AUTOMATIC FIRE PROTECTION SYSTEM NO. 1 - DRY WATER SYSTEM - MANUAL ACTUATOR (A)	19080000AHT01SG001	OPERATING	0	UJTA
82	19080000AHT01SG001GC07	TOWN FEEDER TRANSFORMER SYSTEM - AUTOMATIC FIRE PROTECTION SYSTEM NO. 1 - DRY WATER SYSTEM - SOLENOID VALVE (A)	19080000AHT01SG001	OPERATING	0	UJTA
83	19080000AHT01SG001GC08	TOWN FEEDER TRANSFORMER SYSTEM - AUTOMATIC FIRE PROTECTION SYSTEM NO. 1 - DRY WATER SYSTEM - PRESURE GAUGE (A)	19080000AHT01SG001	OPERATING	0	UJTA
84	19080000AHT01SG001GC09	TOWN FEEDER TRANSFORMER SYSTEM - AUTOMATIC FIRE PROTECTION SYSTEM NO. 1 - DRY WATER SYSTEM - FILTER (A)	19080000AHT01SG001	OPERATING	0	UJTA
85	19080000AHT01SG001GC10	TOWN FEEDER TRANSFORMER SYSTEM - AUTOMATIC FIRE PROTECTION SYSTEM NO. 1 - DRY WATER SYSTEM - PIPING (A)	19080000AHT01SG001	OPERATING	0	UJTA
86	19080000AHT01SG001GC11	TOWN FEEDER TRANSFORMER SYSTEM - AUTOMATIC FIRE PROTECTION SYSTEM NO. 1 - DRY WATER SYSTEM - NOZZLES (A)	19080000AHT01SG001	OPERATING	0	UJTA
87	19080000AHW	COMMON - GROUNDING RESISTOR CABINET OF TOWN FEEDER TRANSFORMER	19080000AH	OPERATING	0	UJTA
88	19080000AHW01	COMMON - 20KV WINDING NEUTRAL POINT GROUNDING RESISTOR CABINET OF TOWN FEEDER TRANSFORMER	19080000AHW	OPERATING	0	UJTA
89	19080000B	COMMON - POWER TRANSMISSION AND AUXILIARY POWER SUPPLY	19080000	OPERATING	0	UJTA
90	19080000BC	COMMON - MEDIUM VOLTAGE DISTRIBUTION BOARDS AND TRANSFORMER, GENERAL PURPOSE	19080000B	OPERATING	0	UJTA
91	19080000BCA	COMMON - COMMON 6KV SWITCHGEAR SECTION  A SYSTEM	19080000BC	OPERATING	0	UJTA
92	19080000BCA01	COMMON -#1 SWITCHBOARD OF  COMMON 6KV SWITCHGEAR SECTION  A	19080000BCA	OPERATING	0	UJTA
93	19080000BCA02	COMMON - #2 SWITCHBOARD OF  COMMON 6KV SWITCHGEAR SECTION  A	19080000BCA	OPERATING	0	UJTA
94	19080000BCB	COMMON - COMMON 6KV SWITCHGEAR SECTION  B SYSTEM	19080000BC	OPERATING	0	UJTA
95	19080000BCB01	COMMON -  #1 SWITCHBOARD OF  COMMON 6KV SWITCHGEAR SECTION  B	19080000BCB	OPERATING	0	UJTA
96	19080000BCB02	COMMON - #2 SWITCHBOARD OF  COMMON 6KV SWITCHGEAR SECTION  B	19080000BCB	OPERATING	0	UJTA
97	19080000BCC	COMMON - COAL  HANDLING 6KV SWITCHGEAR SECTION  A	19080000BC	OPERATING	0	UJTA
98	19080000BCC01	COMMON - #1 SWITCHBOARD OF  COAL HANDLING 6KV SWITCHGEAR SECTION  A	19080000BCC	OPERATING	0	UJTA
99	19080000BCC02	COMMON - #2 SWITCHBOARD OF  COAL HANDLING 6KV SWITCHGEAR SECTION  A	19080000BCC	OPERATING	0	UJTA
100	19080000BCD	COMMON - COAL  HANDLING 6KV SWITCHGEAR SECTION  B	19080000BC	OPERATING	0	UJTA
101	19080000BCD01	COMMON - #1 SWITCHBOARD OF  COAL HANDLING 6KV SWITCHGEAR SECTION  B	19080000BCD	OPERATING	0	UJTA
102	19080000BCD02	COMMON - #2 SWITCHBOARD OF  COAL HANDLING 6KV SWITCHGEAR SECTION  B	19080000BCD	OPERATING	0	UJTA
103	19080000BCE	COMMON - JETTY 6KV SWITCHGEAR SECTION  A	19080000BC	OPERATING	0	UJTA
104	19080000BCE01	COMMON -#1 SWITCHBOARD OF  JETTY 6KV SWITCHGEAR SECTION  A	19080000BCE	OPERATING	0	UJTA
105	19080000BCE02	COMMON - #2 SWITCHBOARD OF  JETTY 6KV SWITCHGEAR SECTION  A	19080000BCE	OPERATING	0	UJTA
106	19080000BCF	COMMON - JETTY 6KV SWITCHGEAR SECTION  B	19080000BC	OPERATING	0	UJTA
107	19080000BCF01	COMMON - #1 SWITCHBOARD OF  JETTY 6KV SWITCHGEAR SECTION  B	19080000BCF	OPERATING	0	UJTA
108	19080000BCF02	COMMON - #2 SWITCHBOARD OF  JETTY 6KV SWITCHGEAR SECTION  B	19080000BCF	OPERATING	0	UJTA
109	19080000BCT	COMMON - START  UP/ STANDBY TRANSFORMER	19080000BC	OPERATING	0	UJTA
110	19080000BCT01	COMMON - HV SIDE PHASE  OF BUSHING CT  OF  S/ST	19080000BCT	OPERATING	0	UJTA
111	19080000BCT01GT001	COMMON -  PHASE  A,B,C  BUSHING CT  OF  S/ST	19080000BCT01	OPERATING	0	UJTA
112	19080000BCT01GT002	COMMON -  NEUTRAL POINT BUSHING CT OF  S/ST	19080000BCT01	OPERATING	0	UJTA
113	19080000BCT01SG001	START UP/ STANDBYTRANSFORMER SYSTEM - AUTOMATIC FIRE PROTECTION SYSTEM NO. 1 (A)	19080000BCT01	OPERATING	0	UJTA
114	19080000BCT01SG001GC01	START UP/ STANDBYTRANSFORMER SYSTEM - AUTOMATIC FIRE PROTECTION SYSTEM NO. 1 - DRY WATER SYSTEM - MANUAL VALVE (A)	19080000BCT01SG001	OPERATING	0	UJTA
115	19080000BCT01SG001GC02	START UP/ STANDBYTRANSFORMER SYSTEM - AUTOMATIC FIRE PROTECTION SYSTEM NO. 1 - DRY WATER SYSTEM - DELUGE VALVE (A)	19080000BCT01SG001	OPERATING	0	UJTA
116	19080000BCT01SG001GC03	START UP/ STANDBYTRANSFORMER SYSTEM - AUTOMATIC FIRE PROTECTION SYSTEM NO. 1 - DRY WATER SYSTEM - WATER GONG (A)	19080000BCT01SG001	OPERATING	0	UJTA
117	19080000BCT01SG001GC04	START UP/ STANDBYTRANSFORMER SYSTEM - AUTOMATIC FIRE PROTECTION SYSTEM NO. 1 - DRY WATER SYSTEM - HORN STROBE (A)	19080000BCT01SG001	OPERATING	0	UJTA
118	19080000BCT01SG001GC05	START UP/ STANDBYTRANSFORMER SYSTEM - AUTOMATIC FIRE PROTECTION SYSTEM NO. 1 - DRY WATER SYSTEM - MANUAL ACTUATOR (A)	19080000BCT01SG001	OPERATING	0	UJTA
119	19080000BCT01SG001GC07	START UP/ STANDBYTRANSFORMER SYSTEM - AUTOMATIC FIRE PROTECTION SYSTEM NO. 1 - DRY WATER SYSTEM - SOLENOID VALVE (A)	19080000BCT01SG001	OPERATING	0	UJTA
120	19080000BCT01SG001GC08	START UP/ STANDBYTRANSFORMER SYSTEM - AUTOMATIC FIRE PROTECTION SYSTEM NO. 1 - DRY WATER SYSTEM - PRESURE GAUGE (A)	19080000BCT01SG001	OPERATING	0	UJTA
121	19080000BCT01SG001GC09	START UP/ STANDBYTRANSFORMER SYSTEM - AUTOMATIC FIRE PROTECTION SYSTEM NO. 1 - DRY WATER SYSTEM - FILTER (A)	19080000BCT01SG001	OPERATING	0	UJTA
122	19080000BCT01SG001GC10	START UP/ STANDBYTRANSFORMER SYSTEM - AUTOMATIC FIRE PROTECTION SYSTEM NO. 1 - DRY WATER SYSTEM - PIPING (A)	19080000BCT01SG001	OPERATING	0	UJTA
123	19080000BCT01SG001GC11	START UP/ STANDBYTRANSFORMER SYSTEM - AUTOMATIC FIRE PROTECTION SYSTEM NO. 1 - DRY WATER SYSTEM - NOZZLES (A)	19080000BCT01SG001	OPERATING	0	UJTA
124	19080000BCW	COMMON - GROUNDING RESISTOR CABINET OF S/ST	19080000BC	OPERATING	0	UJTA
125	19080000BCW01	COMMON - 6KV WINDING A NEUTRAL POINT GROUNDING RESISTOR CABINET OF S/ST	19080000BCW	OPERATING	0	UJTA
126	19080000BCW02	COMMON - 6KV WINDING B NEUTRAL POINT GROUNDING RESISTOR CABINET OF S/ST	19080000BCW	OPERATING	0	UJTA
127	19080000BCZ	COMMON - NON-SEGREGATED BUSDUCT	19080000BC	OPERATING	0	UJTA
128	19080000BCZ01	COMMON - BETWEEN THE 6KV OUTLET  A OF  S/ST  AND Y0BCA01 SWITCHBOARD	19080000BCZ	OPERATING	0	UJTA
129	19080000BCZ02	COMMON - BETWEEN THE 6KV OUTLET  B OF  S/ST AND Y0BCB01 SWITCHBOARD	19080000BCZ	OPERATING	0	UJTA
130	19080000BCZ03	COMMON -BETWEEN THE Y0BCA03 SWITCHBOARD AND 10BBA03 SWITCHBOARD?20BBA03 SWITCHBOARD	19080000BCZ	OPERATING	0	UJTA
131	19080000BCZ04	COMMON - BETWEEN THE Y0BCB03 SWITCHBOARD AND 10BBB03 SWITCHBOARD?20BBB03 SWITCHBOARD	19080000BCZ	OPERATING	0	UJTA
132	19080000BH	COMMON -LOW-VOLTAGE MAIN DISTRIBUTION BOARDS AND TRANSFORMER, GENERAL PURPOSE	19080000B	OPERATING	0	UJTA
133	19080000BHA	COMMON - SECTION A  OF COMMON  LV  PLANT SERVICE POWER CENTER (PC) IN MAIN POWER BUILDING	19080000BH	OPERATING	0	UJTA
134	19080000BHA01	COMMON - #1 DISTRIBUTION BOARD ON SECTION A COMMON  LV  PLANT SERVICE POWER CENTER (PC) IN MAIN POWER BUILDING	19080000BHA	OPERATING	0	UJTA
135	19080000BHA01SD001	PDC & MCC ROOM - AUTOMATIC FIRE DETECTION SYSTEM NO. 1 (A)	19080000BHA01	OPERATING	0	UJTA
136	19080000BHA01SD001CU11	PDC & MCC ROOM - AUTOMATIC FIRE DETECTION SYSTEM NO. 1 - IONIZATION SMOKE DETECTOR - CABLING (A)	19080000BHA01SD001	OPERATING	0	UJTA
137	19080000BHA01SD001CU12	PDC & MCC ROOM - AUTOMATIC FIRE DETECTION SYSTEM NO. 1 - IONIZATION SMOKE DETECTOR - SENSOR (A)	19080000BHA01SD001	OPERATING	0	UJTA
138	19080000BHA01SD001CU21	PDC & MCC ROOM - AUTOMATIC FIRE DETECTION SYSTEM NO. 1 - PHOTOELECTRIC LIGHT-SCATERING SMOKE DETECTOR - CABLING (A)	19080000BHA01SD001	OPERATING	0	UJTA
139	19080000BHA01SD001CU22	PDC & MCC ROOM - AUTOMATIC FIRE DETECTION SYSTEM NO. 1 - PHOTOELECTRIC LIGHT-SCATERING SMOKE DETECTOR - SENSOR (A)	19080000BHA01SD001	OPERATING	0	UJTA
140	19080000BHA01SG001	PDC & MCC ROOM - AUTOMATIC FIRE PROTECTION SYSTEM NO. 1 (A)	19080000BHA01	OPERATING	0	UJTA
141	19080000BHA01SG001GK01	PDC & MCC ROOM - AUTOMATIC FIRE PROTECTION SYSTEM NO. 1 - CLEAN AGENT SYSTEM - MANUAL VALVE (A)	19080000BHA01SG001	OPERATING	0	UJTA
142	19080000BHA01SG001GK05	PDC & MCC ROOM - AUTOMATIC FIRE PROTECTION SYSTEM NO. 1 - CLEAN AGENT SYSTEM - MANUAL PULL STATION (A)	19080000BHA01SG001	OPERATING	0	UJTA
143	19080000BHA01SG001GK06	PDC & MCC ROOM - AUTOMATIC FIRE PROTECTION SYSTEM NO. 1 - CLEAN AGENT SYSTEM - ELECTRIC ACTIVATOR (A)	19080000BHA01SG001	OPERATING	0	UJTA
144	19080000BHA01SG001GK11	PDC & MCC ROOM - AUTOMATIC FIRE PROTECTION SYSTEM NO. 1 - CLEAN AGENT SYSTEM - NOZZLES (A)	19080000BHA01SG001	OPERATING	0	UJTA
145	19080000BHA01SG001GK15	PDC & MCC ROOM - AUTOMATIC FIRE PROTECTION SYSTEM NO. 1 - CLEAN AGENT SYSTEM - CYLINDER (A)	19080000BHA01SG001	OPERATING	0	UJTA
146	19080000BHA02	COMMON - #2 DISTRIBUTION BOARD ON SECTION A COMMON  LV  PLANT SERVICE POWER CENTER (PC)	19080000BHA	OPERATING	0	UJTA
147	19080000BHB	COMMON -SECTION B  OF COMMON  LV  PLANT SERVICE POWER CENTER (PC) IN MAIN POWER BUILDING	19080000BH	OPERATING	0	UJTA
148	19080000BHB01	COMMON - #1 DISTRIBUTION BOARD ON SECTION B COMMON  LV  PLANT SERVICE POWER CENTER (PC)	19080000BHB	OPERATING	0	UJTA
149	19080000BHB02	COMMON - #2 DISTRIBUTION BOARD ON SECTION B COMMON  LV  PLANT SERVICE POWER CENTER (PC)	19080000BHB	OPERATING	0	UJTA
150	19080000BHC	COMMON -SECTION A  OF CHEMICAL WATER HANDLING  LV  PLANT SERVICE POWER CENTER (PC)	19080000BH	OPERATING	0	UJTA
151	19080000BHC01	COMMON - #1 SECTION A  OF CHEMICAL WATER HANDLING  LV  PLANT SERVICE POWER CENTER (PC)	19080000BHC	OPERATING	0	UJTA
152	19080000BHC02	COMMON - #2 SECTION A  OF CHEMICAL WATER HANDLING  LV  PLANT SERVICE POWER CENTER (PC)	19080000BHC	OPERATING	0	UJTA
153	19080000BHD	COMMON - SECTION B  OF CHEMICAL WATER HANDLING  LV  PLANT SERVICE POWER CENTER ?PC?	19080000BH	OPERATING	0	UJTA
154	19080000BHD01	COMMON -#1 SECTION B  OF CHEMICAL WATER HANDLING  LV  PLANT SERVICE POWER CENTER ?PC?	19080000BHD	OPERATING	0	UJTA
155	19080000BHD02	COMMON - #2 SECTION B  OF CHEMICAL WATER HANDLING  LV  PLANT SERVICE POWER CENTER ?PC?	19080000BHD	OPERATING	0	UJTA
156	19080000BHE	COMMON - SECTION A  OF START-UP BOILER  LV  PLANT SERVICE POWER CENTER ?PC?	19080000BH	OPERATING	0	UJTA
157	19080000BHE01	COMMON - #1 SECTION A  OF START-UP BOILER  LV  PLANT SERVICE POWER CENTER ?PC?	19080000BHE	OPERATING	0	UJTA
158	19080000BHE02	COMMON - #2 SECTION A  OF START-UP BOILER  LV  PLANT SERVICE POWER CENTER ?PC?	19080000BHE	OPERATING	0	UJTA
159	19080000BHF	COMMON - SECTION B  OF START-UP BOILER  LV  PLANT SERVICE POWER CENTER ?PC?	19080000BH	OPERATING	0	UJTA
160	19080000BHF01	COMMON - #1 SECTION B  OF START-UP BOILER  LV  PLANT SERVICE POWER CENTER ?PC?	19080000BHF	OPERATING	0	UJTA
161	19080000BHF02	COMMON - #2 SECTION B  OF START-UP BOILER  LV  PLANT SERVICE POWER CENTER ?PC?	19080000BHF	OPERATING	0	UJTA
162	19080000BHG	COMMON - SECTION A  OF CIRCULATING WATER  LV  PLANT SERVICE POWER CENTER ?PC?	19080000BH	OPERATING	0	UJTA
163	19080000BHG01	COMMON -  #1 SECTION A  OF CIRCULATING WATER  LV  PLANT SERVICE POWER CENTER ?PC?	19080000BHG	OPERATING	0	UJTA
164	19080000BHG02	COMMON -  #2 SECTION A  OF CIRCULATING WATER  LV  PLANT SERVICE POWER CENTER ?PC?	19080000BHG	OPERATING	0	UJTA
165	19080000BHH	COMMON - SECTION B  OF CIRCULATING WATER  LV  PLANT SERVICE POWER CENTER ?PC?	19080000BH	OPERATING	0	UJTA
166	19080000BHH01	COMMON -  #1 SECTION B  OF CIRCULATING WATER  LV  PLANT SERVICE POWER CENTER ?PC?	19080000BHH	OPERATING	0	UJTA
167	19080000BHH02	COMMON -  #2 SECTION B  OF CIRCULATING WATER  LV  PLANT SERVICE POWER CENTER ?PC?	19080000BHH	OPERATING	0	UJTA
168	19080000BHJ	COMMON - SECTION A  OF ASH HANDLING  LV  PLANT SERVICE POWER CENTER ?PC?	19080000BH	OPERATING	0	UJTA
169	19080000BHJ01	COMMON -#1 SECTION A  OF ASH HANDLING  LV  PLANT SERVICE POWER CENTER ?PC?	19080000BHJ	OPERATING	0	UJTA
170	19080000BHJ01SD001	ASH HANDLING LV PLANT SERVICE POWER CENTER (PC) - AUTOMATIC FIRE DETECTION SYSTEM NO. 1 (A)	19080000BHJ01	OPERATING	0	UJTA
171	19080000BHJ01SD001CU21	ASH HANDLING LV PLANT SERVICE POWER CENTER (PC) - AUTOMATIC FIRE DETECTION SYSTEM NO. 1 - PHOTOELECTRIC LIGHT-SCATERING SMOKE DETECTOR - CABLING (A)	19080000BHJ01SD001	OPERATING	0	UJTA
172	19080000BHJ01SD001CU22	ASH HANDLING LV PLANT SERVICE POWER CENTER (PC) - AUTOMATIC FIRE DETECTION SYSTEM NO. 1 - PHOTOELECTRIC LIGHT-SCATERING SMOKE DETECTOR - SENSOR (A)	19080000BHJ01SD001	OPERATING	0	UJTA
173	19080000BHJ01SD002	ASH HANDLING LV PLANT SERVICE POWER CENTER (PC) - AUTOMATIC FIRE DETECTION SYSTEM NO. 2 (A)	19080000BHJ01	OPERATING	0	UJTA
174	19080000BHJ01SD002CT41	ASH HANDLING LV PLANT SERVICE POWER CENTER (PC) - AUTOMATIC FIRE DETECTION SYSTEM NO. 2 - LINEAR HEAT DETECTOR - CABLING (A)	19080000BHJ01SD002	OPERATING	0	UJTA
175	19080000BHJ01SD002CT42	ASH HANDLING LV PLANT SERVICE POWER CENTER (PC) - AUTOMATIC FIRE DETECTION SYSTEM NO. 2 - LINEAR HEAT DETECTOR - SENSOR (A)	19080000BHJ01SD002	OPERATING	0	UJTA
176	19080000BHJ02	COMMON - #2 SECTION A  OF ASH HANDLING  LV  PLANT SERVICE POWER CENTER ?PC?	19080000BHJ	OPERATING	0	UJTA
177	19080000BHK	COMMON - SECTION B  OF ASH HANDLING  LV  PLANT SERVICE POWER CENTER ?PC?	19080000BH	OPERATING	0	UJTA
178	19080000BHK01	COMMON -#1 SECTION B  OF ASH HANDLING  LV  PLANT SERVICE POWER CENTER ?PC?	19080000BHK	OPERATING	0	UJTA
179	19080000BHK02	COMMON - #2 SECTION B  OF ASH HANDLING  LV  PLANT SERVICE POWER CENTER ?PC?	19080000BHK	OPERATING	0	UJTA
180	19080000BHL	COMMON -SECTION A  OF ADMINISTRATION BUILDING  LV  PLANT SERVICE POWER CENTER ?PC?	19080000BH	OPERATING	0	UJTA
181	19080000BHL01	COMMON -#1 SECTION A  OF ADMINISTRATION BUILDING  LV  PLANT SERVICE POWER CENTER ?PC?	19080000BHL	OPERATING	0	UJTA
182	19080000BHL02	COMMON - #2 SECTION A  OF ADMINISTRATION BUILDING  LV  PLANT SERVICE POWER CENTER ?PC?	19080000BHL	OPERATING	0	UJTA
183	19080000BHM	COMMON - SECTION B  OF ADMINISTRATION BUILDING  LV  PLANT SERVICE POWER CENTER ?PC?	19080000BH	OPERATING	0	UJTA
184	19080000BHM01	COMMON - SECTION B  OF ADMINISTRATION BUILDING  LV  PLANT SERVICE POWER CENTER ?PC?- #1 DISTRIBUTION BOARD	19080000BHM	OPERATING	0	UJTA
185	19080000BHM02	COMMON - SECTION B  OF ADMINISTRATION BUILDING  LV  PLANT SERVICE POWER CENTER ?PC?- #2 DISTRIBUTION BOARD	19080000BHM	OPERATING	0	UJTA
186	19080000BHN	COMMON - SECTION A  OF COAL HANDLING  LV  PLANT SERVICE POWER CENTER ?PC?	19080000BH	OPERATING	0	UJTA
187	19080000BHN01	COMMON - SECTION A  OF COAL HANDLING  LV  PLANT SERVICE POWER CENTER ?PC? - #1 DISTRIBUTION BOARD	19080000BHN	OPERATING	0	UJTA
188	19080000BHN02	COMMON -  SECTION A  OF COAL HANDLING  LV  PLANT SERVICE POWER CENTER ?PC? - #2 DISTRIBUTION BOARD	19080000BHN	OPERATING	0	UJTA
189	19080000BHP	COMMON - SECTION B  OF COAL HANDLING  LV  PLANT SERVICE POWER CENTER ?PC?	19080000BH	OPERATING	0	UJTA
190	19080000BHP01	COMMON - SECTION B  OF COAL HANDLING  LV  PLANT SERVICE POWER CENTER ?PC? - #1 DISTRIBUTION BOARD	19080000BHP	OPERATING	0	UJTA
191	19080000BHP02	COMMON -  SECTION B  OF COAL HANDLING  LV  PLANT SERVICE POWER CENTER ?PC?- #2 DISTRIBUTION BOARD	19080000BHP	OPERATING	0	UJTA
192	19080000BHQ	COMMON -SECTION A  OF JETTY  LV  PLANT SERVICE POWER CENTER ?PC?	19080000BH	OPERATING	0	UJTA
193	19080000BHQ01	COMMON - SECTION A  OF JETTY  LV  PLANT SERVICE POWER CENTER ?PC? #1 DISTRIBUTION BOARD	19080000BHQ	OPERATING	0	UJTA
194	19080000BHQ02	COMMON -  SECTION A  OF JETTY  LV  PLANT SERVICE POWER CENTER ?PC? #2 DISTRIBUTION BOARD	19080000BHQ	OPERATING	0	UJTA
195	19080000BHR	COMMON - SECTION B  OF JETTY  LV  PLANT SERVICE POWER CENTER ?PC?	19080000BH	OPERATING	0	UJTA
196	19080000BHR01	COMMON - SECTION B  OF JETTY  LV  PLANT SERVICE POWER CENTER ?PC? #1 DISTRIBUTION BOARD	19080000BHR	OPERATING	0	UJTA
197	19080000BHR02	COMMON - SECTION B  OF JETTY  LV  PLANT SERVICE POWER CENTER ?PC? #2 DISTRIBUTION BOARD	19080000BHR	OPERATING	0	UJTA
198	19080000BHT	COMMON - LV  TRANSFORMER  A IN MAIN POWER BUILDING	19080000BH	OPERATING	0	UJTA
199	19080000BHT01	COMMON - COMMON LV TRANSFORMER A IN MAIN POWER BUILDING	19080000BHT	OPERATING	0	UJTA
200	19080000BHT02	COMMON - COMMON  LV  TRANSFORMER  B IN MAIN POWER BUILDING	19080000BHT	OPERATING	0	UJTA
201	19080000BHT03	COMMON -  CHEMICAL WATER HANDLING  LV  TRANSFORMER  A	19080000BHT	OPERATING	0	UJTA
202	19080000BHT04	COMMON - CHEMICAL WATER HANDLING  LV  TRANSFORMER  B	19080000BHT	OPERATING	0	UJTA